; Filename: prb.inp
; WNTR: 1.1.0
; Created: 2024-02-06 17:57:33
[TITLE]

[JUNCTIONS]
;ID                      Elevation       Demand Pattern                 
 J2                                 0             0.5 1                          ;
 J3                                 0             0.5 1                          ;
 J4                                 0             0.5 1                          ;
 J5                                 0             0.5 1                          ;
 J6                                 0             0.5 1                          ;
 J7                                 0             0.5 1                          ;
 J8                                 0             0.5 1                          ;
 J9                                 0             0.5 1                          ;
 J10                                0             0.5 1                          ;
 J11                                0             0.5 1                          ;
 J12                                0             0.5 1                          ;
 J13                                0             0.5 1                          ;
 J14                                0             0.5 1                          ;
 J15                                0             0.5 1                          ;
 J16                                0             0.5 1                          ;
 J17                                0             0.5 1                          ;
 J18                                0             0.5 1                          ;
 J19                                0             0.5 1                          ;
 J20                                0             0.5 1                          ;
 J21                                0             0.5 1                          ;
 J22                                0             0.5 1                          ;
 J23                                0             0.5 1                          ;
 J24                                0             0.5 1                          ;
 J25                                0             0.5 1                          ;
 J26                                0             0.5 1                          ;

[RESERVOIRS]
;ID                                   Head                  Pattern
 J1                                50                            ;

[TANKS]
;ID                              Elevation           Init Level            Min Level            Max Level             Diameter           Min Volume Volume Curve         Overflow            

[PIPES]
;ID                   Node1                Node2                              Length             Diameter            Roughness           Minor Loss               Status
 P1                   J2                   J3                              1000             162             100               0                 Open   ;
 P2                   J3                   J4                              1000             162             100               0                 Open   ;
 P3                   J4                   J5                              1000             162             100               0                 Open   ;
 P4                   J5                   J26                             1000             162             100               0                 Open   ;
 P5                   J9                   J8                              1000             162             100               0                 Open   ;
 P6                   J8                   J7                              1000             162             100               0                 Open   ;
 P7                   J7                   J6                              1000             162             100               0                 Open   ;
 P8                   J6                   J25                             1000             162             100               0                 Open   ;
 P9                   J10                  J11                             1000             162             100               0                 Open   ;
 P10                  J11                  J12                             1000             162             100               0                 Open   ;
 P11                  J12                  J13                             1000             162             100               0                 Open   ;
 P12                  J13                  J24                             1000             162             100               0                 Open   ;
 P13                  J17                  J16                             1000             162             100               0                 Open   ;
 P14                  J16                  J15                             1000             162             100               0                 Open   ;
 P15                  J15                  J14                             1000             162             100               0                 Open   ;
 P16                  J14                  J23                             1000             162             100               0                 Open   ;
 P17                  J18                  J19                             1000             162             100               0                 Open   ;
 P18                  J19                  J20                             1000             162             100               0                 Open   ;
 P19                  J20                  J21                             1000             162             100               0                 Open   ;
 P20                  J21                  J22                             1000             162             100               0                 Open   ;
 P21                  J22                  J23                             1000             162             100               0                 Open   ;
 P22                  J23                  J24                             1000             162             100               0                 Open   ;
 P23                  J24                  J25                             1000             162             100               0                 Open   ;
 P24                  J25                  J26                             1000             162             100               0                 Open   ;
 P25                  J21                  J14                             1000             162             100               0                 Open   ;
 P26                  J14                  J13                             1000             162             100               0                 Open   ;
 P27                  J13                  J6                              1000             162             100               0                 Open   ;
 P28                  J6                   J5                              1000             162             100               0                 Open   ;
 P29                  J20                  J15                             1000             162             100               0                 Open   ;
 P30                  J15                  J12                             1000             162             100               0                 Open   ;
 P31                  J12                  J7                              1000             162             100               0                 Open   ;
 P32                  J7                   J4                              1000             162             100               0                 Open   ;
 P33                  J19                  J16                             1000             162             100               0                 Open   ;
 P34                  J16                  J11                             1000             162             100               0                 Open   ;
 P35                  J11                  J8                              1000             162             100               0                 Open   ;
 P36                  J8                   J3                              1000             162             100               0                 Open   ;
 P37                  J2                   J9                              1000             162             100               0                 Open   ;
 P38                  J9                   J10                             1000             162             100               0                 Open   ;
 P39                  J10                  J17                             1000             162             100               0                 Open   ;
 P40                  J17                  J18                             1000             162             100               0                 Open   ;
 P41                  J1                   J2                              1000             250             100               0                 Open   ;

[PUMPS]
;ID                   Node1                Node2                Properties          

[VALVES]
;ID                   Node1                Node2                            Diameter Type              Setting           Minor Loss

[TAGS]
;type      name       tag       

[DEMANDS]
;ID        Demand     Pattern   

[STATUS]
;ID        Setting   

[PATTERNS]
;ID        Multipliers

1 0.121246 0.175953 0.240469 0.639296 1.563050 2.398827
1 2.542522 2.149560 1.489736 0.929619 0.706745 0.589443
1 0.513196 0.492669 0.521994 0.639296 0.953079 1.609971
1 2.043988 1.659824 1.002933 0.565982 0.302053 0.128098
1 0.150546 0.203812 0.360704 1.049120 2.054985 2.569648
1 2.381232 1.851173 1.153226 0.790323 0.649560 0.539589
1 0.500733 0.497067 0.568915 0.758798 1.233138 1.931085
1 1.952346 1.299120 0.761730 0.413490 0.203585 0.121246
1 0.175953 0.240469 0.639296 1.563050 2.398827 2.542522
1 2.149560 1.489736 0.929619 0.706745 0.589443 0.513196
1 0.492669 0.521994 0.639296 0.953079 1.609971 2.043988
1 1.659824 1.002933 0.565982 0.302053 0.128098 0.150546
1 0.203812 0.360704 1.049120 2.054985 2.569648 2.381232
1 1.851173 1.153226 0.790323 0.649560 0.539589 0.500733
1 0.497067 0.568915 0.758798 1.233138 1.931085 1.952346
1 1.299120 0.761730 0.413490 0.203585 0.121246 0.175953
1 0.240469 0.639296 1.563050 2.398827 2.542522 2.149560
1 1.489736 0.929619 0.706745 0.589443 0.513196 0.492669
1 0.521994 0.639296 0.953079 1.609971 2.043988 1.659824
1 1.002933 0.565982 0.302053 0.121246

2 0.000000 0.000000 0.000000 1.000000 1.000000 1.000000
2 1.000000 1.000000 1.000000 1.000000 1.000000 1.000000
2 1.000000 1.000000 1.000000 1.000000 1.000000 1.000000
2 1.000000 1.000000 1.000000 1.000000 1.000000 1.000000

3 0.000000 0.000000 0.000000 0.000000 0.000000 0.000000
3 0.000000 0.000000 0.000000 0.000000 0.000000 0.000000
3 0.000000 0.000000 0.000000 0.000000 0.000000 0.000000
3 0.000000 0.000000 0.000000 0.000000 0.000000 0.000000

4 1.000000 1.000000 1.000000 1.000000 1.000000 1.000000
4 1.000000 1.000000 1.000000 1.000000 1.000000 1.000000
4 1.000000 1.000000 1.000000 1.000000 1.000000 1.000000
4 1.000000 1.000000 1.000000 1.000000 1.000000 1.000000

[CURVES]
;ID         X-Value      Y-Value     

[CONTROLS]

[RULES]

[ENERGY]
GLOBAL EFFICIENCY      75.0000
GLOBAL PRICE           0.0000
DEMAND CHARGE          0.0000

[EMITTERS]
;ID        Flow coefficient

[QUALITY]

[SOURCES]
;Node      Type       Quality    Pattern   
J9         FLOWPACED  100.0      4         

[REACTIONS]
;Type           Pipe/Tank               Coefficient

 ORDER BULK 1
 ORDER TANK 1
 ORDER WALL 1
 GLOBAL BULK 0.0000    
 GLOBAL WALL 0.0000    
 LIMITING POTENTIAL 0.0000    
 ROUGHNESS CORRELATION 0.0000    

[MIXING]
;Tank ID             Model Fraction

[TIMES]
DURATION             48:00:00
HYDRAULIC TIMESTEP   00:30:00
QUALITY TIMESTEP     00:05:00
PATTERN TIMESTEP     01:00:00
PATTERN START        00:00:00
REPORT TIMESTEP      01:00:00
REPORT START         00:00:00
START CLOCKTIME      00:00:00 AM
RULE TIMESTEP        00:06:00
STATISTIC            NONE      

[REPORT]
SUMMARY    NO
PAGE       0

[OPTIONS]
UNITS                LPS                 
HEADLOSS             H-W                 
SPECIFIC GRAVITY     1
VISCOSITY            1
TRIALS               40
ACCURACY             0.001
CHECKFREQ            2
MAXCHECK             10
UNBALANCED           CONTINUE 10
PATTERN              1                   
DEMAND MULTIPLIER    1
DEMAND MODEL         PDA
MINIMUM PRESSURE     0.00
REQUIRED PRESSURE    20.00
PRESSURE EXPONENT    0.5
EMITTER EXPONENT     0.5
QUALITY              Chemical mg/L
DIFFUSIVITY          1
TOLERANCE            0.01

[COORDINATES]
;Node      X-Coord    Y-Coord   
J2               1000.000000000       4000.000000000
J3               2000.000000000       4000.000000000
J4               3000.000000000       4000.000000000
J5               4000.000000000       4000.000000000
J6               4000.000000000       3000.000000000
J7               3000.000000000       3000.000000000
J8               2000.000000000       3000.000000000
J9               1000.000000000       3000.000000000
J10              1000.000000000       2000.000000000
J11              2000.000000000       2000.000000000
J12              3000.000000000       2000.000000000
J13              4000.000000000       2000.000000000
J14              4000.000000000       1000.000000000
J15              3000.000000000       1000.000000000
J16              2000.000000000       1000.000000000
J17              1000.000000000       1000.000000000
J18              1000.000000000          0.000000000
J19              2000.000000000          0.000000000
J20              3000.000000000          0.000000000
J21              4000.000000000          0.000000000
J22              5000.000000000          0.000000000
J23              5000.000000000       1000.000000000
J24              5000.000000000       2000.000000000
J25              5000.000000000       3000.000000000
J26              5000.000000000       4000.000000000
J1                  0.000000000       4000.000000000

[VERTICES]
;Link      X-Coord    Y-Coord   

[LABELS]

[BACKDROP]
DIMENSIONS    -250.000    -200.000    5250.000    4200.000
UNITS    NONE
OFFSET    0.00    0.00

[END]
